LTspice 24.0.12 for Windows
Circuit: * G:\repos\mcguitarpedal\preamp\SPICE Files\LTspice\Preamp_noise_noninv.asc
Start Time: Sun Sep  8 20:54:42 2024
Lme49710:c_cc4: both pins shorted together -- ignoring.
solver = Normal
Maximum thread count: 12
tnom = 27
temp = 27
method = modified trap
WARNING: Less than two connections to node nc_01.  This node is used by r.
Direct Newton iteration failed to find .op point.  (Use ".option noopiter" to skip.)
Starting Gmin stepping
Gmin = 10
Gmin = 1.07374
vernier = 0.5
vernier = 0.25
vernier = 0.125
vernier = 0.0625
Gmin = 1.02519
vernier = 0.03125
vernier = 0.015625
vernier = 0.0078125
Gmin = 1.01518
vernier = 0.00390625
vernier = 0.00195312
Gmin = 1.00974
vernier = 0.000976562
vernier = 0.00130208
Gmin = 1.00736
vernier = 0.00173611
vernier = 0.000868055
vernier = 0.000434028
Gmin = 1.0054
Gmin = 0
Gmin stepping failed

Starting source stepping with srcstepmethod=0
Source Step = 3.0303%
Source Step = 28.0303%
Source Step = 30.8712%
Source Step = 32.1496%
Source Step = 32.5402%
Source Step = 32.6586%
Source Step = 32.7474%
Source Step = 32.777%
Source Step = 32.8066%
Source Step = 32.8362%
Source Step = 32.8658%
Source Step = 32.8954%
vernier = 0.00146484
Source Step = 32.9279%
Source Step = 32.9723%
Source Step = 33.0167%
Source Step = 33.0611%
Source Step = 33.1055%
vernier = 0.00219727
Source Step = 33.1521%
Source Step = 33.2187%
Source Step = 33.2852%
Source Step = 33.3518%
Source Step = 33.4184%
Source Step = 33.485%
vernier = 0.0032959
Source Step = 33.5849%
Source Step = 33.6847%
Source Step = 33.7846%
Source Step = 33.8845%
Source Step = 33.9844%
vernier = 0.00494385
Source Step = 34.1292%
Source Step = 34.279%
Source Step = 34.4288%
Source Step = 34.5786%
Source Step = 34.7284%
vernier = 0.00741577
Source Step = 34.8314%
Source Step = 34.8876%
Source Step = 34.9438%
Source Step = 35%
Source Step = 35.0562%
Source Step = 35.1123%
vernier = 0.00278091
Source Step = 35.1938%
Source Step = 35.2781%
Source Step = 35.3623%
Source Step = 35.4466%
Source Step = 35.5309%
vernier = 0.00417137
Source Step = 35.6489%
Source Step = 35.7753%
Source Step = 35.9017%
Source Step = 36.0281%
Source Step = 36.1545%
vernier = 0.00625706
Source Step = 36.3251%
Source Step = 36.5147%
Source Step = 36.7043%
Source Step = 36.894%
Source Step = 37.0836%
vernier = 0.00938559
Source Step = 37.3301%
Source Step = 37.6145%
Source Step = 37.8989%
Source Step = 38.1833%
Source Step = 38.4677%
vernier = 0.0140784
Source Step = 38.8232%
Source Step = 39.2498%
Source Step = 39.6765%
Source Step = 40.1031%
Source Step = 40.5297%
vernier = 0.0211176
Source Step = 41.0416%
Source Step = 41.6816%
Source Step = 42.3215%
Source Step = 42.9614%
Source Step = 43.6013%
vernier = 0.0316764
Source Step = 44.3372%
Source Step = 45.2971%
Source Step = 46.257%
Source Step = 47.2169%
Source Step = 48.1768%
vernier = 0.0475145
Source Step = 49.2327%
Source Step = 50.6725%
Source Step = 52.1124%
Source Step = 53.5522%
Source Step = 54.992%
vernier = 0.0712718
Source Step = 56.5038%
Source Step = 58.6636%
Source Step = 60.8233%
Source Step = 62.9831%
Source Step = 65.1429%
Source Step = 67.3026%
vernier = 0.106908
Source Step = 70.5422%
Source Step = 73.7819%
Source Step = 77.0215%
Source Step = 80.2611%
Source Step = 83.5007%
vernier = 0.160362
Source Step = 88.1982%
Source Step = 93.0576%
Source Step = 95.9733%
vernier = 0.0100226
Source Step = 96.1555%
Source Step = 96.4592%
Source Step = 96.763%
Source Step = 96.9452%
Source Step = 97.0211%
Source Step = 97.097%
Source Step = 97.173%
Source Step = 97.2489%
Source Step = 97.3248%
Source Step = 97.4008%
Source Step = 97.4767%
Source Step = 97.5526%
Source Step = 97.6285%
Source Step = 97.7045%
Source Step = 97.7804%
Source Step = 97.8563%
Source Step = 97.9323%
Source Step = 98.0082%
Source Step = 98.0841%
Source Step = 98.16%
Source Step = 98.236%
Source Step = 98.3119%
Source Step = 98.3878%
Source Step = 98.4638%
Source Step = 98.5397%
Source Step = 98.6156%
Source Step = 98.6916%
Source Step = 98.7675%
Source Step = 98.8434%
Source Step = 98.9193%
Source Step = 98.9953%
Source Step = 99.0712%
Source Step = 99.1471%
Source Step = 99.2231%
Source Step = 99.299%
Source Step = 99.3749%
Source Step = 99.4508%
Source Step = 99.5268%
Source Step = 99.6027%
Source Step = 99.6786%
Source Step = 99.7546%
Source Step = 99.8305%
Source Step = 99.9064%
Source Step = 99.9823%
Source Step = 100%
Source stepping succeeded in finding the operating point.

Changing Tseed to 1e-11
Heightened Def Con from 1.00195e-11 to 4.12695e-11
Total elapsed time: 9.116 seconds.

